test/data/opendss/case3_delta_gens.dss
Clear
New Circuit.3Bus_example
!  define a really stiff source
~ basekv=0.4   pu=1.0  MVAsc1=1e6  MVAsc3=1e6 basemva=1

!Define Linecodes


New linecode.556MCM nphases=3 basefreq=50  ! ohms per 5 mile
~ rmatrix = ( 0.1000 | 0.0400    0.1000 |  0.0400    0.0400    0.1000)
~ xmatrix = ( 0.0583 |  0.0233    0.0583 | 0.0233    0.0233    0.0583)
~ cmatrix = (0.0  | -0  0.0 | -0 -0 0.0  ) ! small capacitance


New linecode.4/0QUAD nphases=3 basefreq=50  ! ohms per 100ft
~ rmatrix = ( 0.1167 | 0.0467    0.1167 | 0.0467    0.0467    0.1167)
~ xmatrix = (0.0667  |  0.0267    0.0667  |  0.0267    0.0267    0.0667 )
~ cmatrix = (0.0  | -0  0.0 | -0 -0 0.0  )  ! small capacitance

!Define lines

New Line.OHLine  bus1=sourcebus.1.2.3  Primary.1.2.3  linecode = 556MCM   length=0.01  ! 5 mile line
New Line.Quad    Bus1=Primary.1.2.3  loadbus.1.2.3  linecode = 4/0QUAD  length=0.008  ! 100 ft

!Loads - single phase

! single-phase loads
New Load.y1phm1 phases=1 loadbus.1 kv=0.23 kW=400 kvar=300 model=1 conn=wye vminpu=0.7 vmaxpu=1.3
New Load.y1phm2 phases=1 loadbus.1 kv=0.23 kW=400 kvar=300 model=2 conn=wye vminpu=0.7 vmaxpu=1.3
New Load.y1phm5 phases=1 loadbus.1 kv=0.23 kW=400 kvar=300 model=5 conn=wye vminpu=0.7 vmaxpu=1.3

! three-phase loads; always specified in LL unlike one-phase, also for wye loads
New Load.d3phm1 phases=3 loadbus kv=0.4 kW=200 kvar=300 model=1 conn=delta vminpu=0.7 vmaxpu=1.3
New Load.d3phm2 phases=3 loadbus kv=0.4 kW=400 kvar=300 model=2 conn=delta vminpu=0.7 vmaxpu=1.3
New Load.d3phm5 phases=3 loadbus kv=0.4 kW=400 kvar=300 model=5 conn=delta vminpu=0.7 vmaxpu=1.3
New Load.y3phm2 phases=3 loadbus kv=0.4 kW=200 kvar=300 model=2 conn=wye vminpu=0.7 vmaxpu=1.3
New Load.y3phm5 phases=3 loadbus kv=0.4 kW=200 kvar=300 model=5 conn=wye vminpu=0.7 vmaxpu=1.3

Set voltagebases=[0.4]
Set tolerance=0.000001
set defaultbasefreq=50
Calcvoltagebases

Solve
